[General]
network = ccnpp.topologies.ProviderMobility
sim-time-limit = 400s


# RNG/seed settings
repeat=20
seed-set=${runnumber}

**.constraintAreaMinX = 0m
**.constraintAreaMinY = 0m
**.constraintAreaMinZ = 0m
**.constraintAreaMaxX = 800m
**.constraintAreaMaxY = 800m
**.constraintAreaMaxZ = 0m

#**.debug = true
#**.coreDebug = false

# channel physical parameters
**.mgmt.numChannels = 5

# access point
**.poa1.wlan[*].mac.address = "10:00:00:00:00:00"
**.poa2.wlan[*].mac.address = "20:00:00:00:00:00"
**.poa3.wlan[*].mac.address = "30:00:00:00:00:00"
**.poa4.wlan[*].mac.address = "40:00:00:00:00:00"
**.poa1.wlan[*].mgmt.ssid = "POA1"
**.poa2.wlan[*].mgmt.ssid = "POA2"
**.poa3.wlan[*].mgmt.ssid = "POA3"
**.poa4.wlan[*].mgmt.ssid = "POA4"

**.poa*.wlan[*].mgmt.beaconInterval = 100ms
**.wlan[*].mgmt.numAuthSteps = 4

**.mgmt.frameCapacity = 10

# mobility
#StationaryMobility,LinearMobility,RandomWPMobility,ConstSpeedMobility
#**.host02*.mobilityType = "RandomWPMobility"
# mobility
**.mobility.initFromDisplayString = true
**.host02*.mobilityType = "RandomWPMobility"
**.host02*.mobility.speed = 10 mps
**.host02*.mobility.angle = 0
**.host02*.mobility.acceleration = 0
**.host02*.mobility.updateInterval = 100ms

# wireless channels
**.poa1.wlan[*].radio.channelNumber = 2
**.poa2.wlan[*].radio.channelNumber = 3
**.poa3.wlan[*].radio.channelNumber = 2
**.poa4.wlan[*].radio.channelNumber = 3
**.host*.wlan[*].radio.channelNumber = 0  # just initially -- it'll scan

# wireless configuration
**.wlan*.bitrate = 2Mbps
**.wlan[*].agent.activeScan = true
**.wlan[*].agent.default_ssid = ""
**.wlan[*].agent.channelsToScan = ""  # "" means all
**.wlan[*].agent.probeDelay = 0.1s
**.wlan[*].agent.minChannelTime = 0.15s
**.wlan[*].agent.maxChannelTime = 0.3s
**.wlan[*].agent.authenticationTimeout = 5s
**.wlan[*].agent.associationTimeout = 5s

**.mac.address = "auto"
**.mac.maxQueueSize = 14
**.mac.rtsThresholdBytes = 4000B
**.wlan[*].mac.retryLimit = 7
**.wlan[*].mac.cwMinData = 7
**.wlan[*].mac.cwMinBroadcast = 31

**.radio.transmitter.power = 2.0mW

#####################################################################
########################    AppLayer    #############################
#####################################################################
**.host01.numCcnApps = 1
#**.host01.ccnApp[0].typename = "CcnDummyApp"

##Dummy : begin{
#**.host01.ccnApp[0].typename = "CcnDummyApp"
#**.host01.ccnApp[0].base_contentname = "/cin/ufpe/movie"
#**.host01.ccnApp[0].lambda = 30
#**.host01.ccnApp[0].startTime = 23s
#**.host01.ccnApp[0].stopTime = 200s
#dummy : } end

##Video : begin{
**.host01.ccnApp[*].typename = "CcnDummyApp"
**.host01.ccnApp[*].chunkSize = 2048kb 
**.host01.ccnApp[*].base_contentname = "/cin/ufpe/movie_dummy"
**.host01.ccnApp[*].lambda = ${MS = 10,20,50,80}
**.host01.ccnApp[*].startTime = 20s
**.host01.ccnApp[*].stopTime = 600s
**.host01.ccnApp[*].video_count = 1
**.host01.ccnApp[*].interestLifetime = 400ms

**.*.cleanall = true
**.*.toYuv = true
**.*.evaluate = true
**.*.qoe_metrics = true
#Video : } end


#default output gateway interface
**.host02.forwardingTable.defaultGateway = "host02.wlan[0]"
**.host01.forwardingTable.defaultGateway = "host01.wlan[0]"

#####################################################################
##################    Provider Mobility      ########################
#####################################################################
**.*.providerMobility = ${PM = false,true}
#**.router0*.providerMobility = true

#####################################################################
########################     OSPFN      #############################
#####################################################################

**.*.ospfn = true
#####################################################################
########################     Admin      #############################
#####################################################################

#*.host01.**.ccnScenarioFile   = "configs/host01.cfg"
#*.router01.**.ccnScenarioFile = "configs/router01.cfg"
#*.router02.**.ccnScenarioFile = "configs/router02.cfg"
#*.router03.**.ccnScenarioFile = "configs/router03.cfg"
*.host02.**.ccnScenarioFile = "configs/host02.cfg"
#####################################################################
##########################  CcnCore #################################
#####################################################################

*.host02.ccnlayer.ccnx.hasCcnr = true
**.RTT = 3s

#If it's a mobile host, pit temout could cause trouble
# "0s" turns the timeout off.
**.pit_timeout = 3.0s #Every t seconds 
**.fib_timeout = 0s 

#####################################################################
#########################    CCNR    ################################
#####################################################################
##Average size of a content (in chunks)
**.file_size = 100
##Shaping factor of the Zipf distribution
**.ccnr.alpha = ${alpha = 0.5}
#**.alpha = 0.5
#**.alpha = ${a = 1}
##Plateau of the MZipf distribution
**.q = 0
##Cardinality of the catalog
**.objects = 10^4

#####################################################################
##########################  Caching  ################################
#####################################################################
##Caching meta-algorithms: fixP, lce , no_cache , lcd, btw, prob_cache
#**.cache_policy = "${ D = prob_cache, lce, priority_cache, fix0.3, fix0.7, lcd, btw}"

**.cache_policy = "${ D = lce }"

#**.cache_policy = "${ D = fix0.1,fix0.2,fix0.3,fix0.4,fix0.5,fix0.6,fix0.7,fix0.8,fix0.9,prob_cache }"
#**.cache_policy = "${ D = prob_cache, lce, rank_cache, fix0.3, fix0.7, lcd, btw}"

##Caching algorithms: {lru,lfu,fifo,two,random}_cache
**.RS = "${ R = lru }_cache"
##Cache size (in bytes)
#**.cache_size = ${ CS = 100000..1000000 step 100000 } bytes  # 1GB
#Cuidado com o script de estatistica ao utrapassar 1000MB
#**.cache_size = ${ cs = 100..900 step 100 } MB
#**.cache_size = ${ cs = 10000, 100000, 250000, 500000, 750000, 1000000} MB
#**.cache_size = ${ cs = 100..900 step 100 }MB
#**.cache_size = ${ cs = 10..90 step 10 }MB
#**.cache_size = ${ cs = 100..900 step 100 } MB

**.cache_size = ${ cs = 900 } MB

######################################################################
##  Record Statistics 
######################################################################


#**.radioChannelChanged.vector-recording = true
#Thoughput for appLayer 
**.appThroughput.vector-recording = true
**.appThroughput.scalar-recording = false

*.*.eth[*].*.*.vector-recording = false
*.*.eth[*].*.*.scalar-recording = false

**.pitSize.scalar-recording = false
**.pitSize.vector-recording = false

**.hitRate.vector-recording = false
**.hitRate.scalar-recording = false

**.hitHop.vector-recording = false
**.hitHop.scalar-recording = false

**.rttAll.vector-recording = true
**.rttAll.scalar-recording = false

**.replacement.vector-recording = false
**.replacement.scalar-recording = false

**.decisionTime.vector-recording = false
**.decisionTime.scalar-recording = false


**.rc.vector-recording = false
**.rc.scalar-recording = false

######################################################################
##  Global parameters 
######################################################################

total-stack = 16MiB
tkenv-plugin-path = ../../../etc/plugins
#debug-on-errors = true
#record-eventlog = true
#output-vector-file = ${resultdir}/${D}-${PM}/cs-${cs}/MS_${MS}/runid_${runnumber}/ccn-id.vec
#output-scalar-file = ${resultdir}/${D}-${PM}/cs-${cs}/MS_${MS}/runid_${runnumber}/ccn-id.sca

output-vector-file = /media/eduflow/BACKUP/providerMobilityResults/${D}-${PM}/cs-${cs}/MS_${MS}/runid_${runnumber}/ccn-id.vec
output-scalar-file = /media/eduflow/BACKUP/providerMobilityResults/${D}-${PM}/cs-${cs}/MS_${MS}/runid_${runnumber}/ccn-id.sca




