
###############################################################################
##  Experiment: CCN over Ethernet 
###############################################################################

[General]
sim-time-limit = 100s
network = ccnlite.topologies.CCN_2cli_2rtr_1svr
description = "Example CCN over Ethernet with 2 clients, 2 routers, 1 servers. Scenario setup taken from clientX.cfg files"
#sim-time-limit = 1
## topology/scenario settings


*.defaultDebugLevel = 4 	## for all simulation: 0=none, 1=Info, 2=Warning, 3=Error, 4=Detail
*.auxDebug = true			## enable console debugging output

## per node settings
**.debugLevel = 99			## per host: 0=none, 1=Info, 2=Warning, 3=Error, 4=Detail
**.minTxPace = ${a=10}ms
**.maxCacheSlots = 400
**.maxCacheBytes = 524288000Bytes
**.ccnCoreVersion = "CcnLite.v1"

## Network metrics
**.linkDataRate = 100Mbps
**.linkDelay = uniform(20ms,7ms)
**.linkBer = 0 #1e-5

#####################################################################
########################    AppLayer    #############################
#####################################################################

**.client1.appLayer.sender = true
#**.client1.appLayer.dummysender = true
**.*.appLayer.ds_start = 0s 	#DummySender Start Time
**.*.appLayer.ds_stop = 10s	    #DummySender Stop Time

#Video Traffic
**.*.cleanall = false
**.*.toYuv = true
**.*.evaluate = true
**.appLayer.num_dummy_chunks = 10000
**.appLayer.lambda = 30
**.appLayer.howmany = 1
**.appLayer.base_contentname = "/cin/ufpe/movie"
**.appLayer.max_delay = 4000 ms   # is a packet lost if (receiver_time - sender-time) > max_delay
**.appLayer.interestLifetime = 4000ms
**.appLayer.max_retrans_attempts = 10

#####################################################################
########################     Admin      #############################
#####################################################################

*.client1.ccnd.ccnScenarioFile = "client1_ccn.cfg"
*.client2.ccnd.ccnScenarioFile = "client2_ccn.cfg"
*.router1.ccnd.ccnScenarioFile = "router1_ccn.cfg"
*.router2.ccnd.ccnScenarioFile = "router2_ccn.cfg"
*.server1.ccnd.ccnScenarioFile = "server1_ccn.cfg"

#####################################################################
##########################  CcnCore #################################
#####################################################################

*.server1.ccnx.hasCcnr = true
**.RTT = 3s
**.pit_timeout = 20.0s #Every t seconds 

#Betweenness Centrality Policy
**.centrality = 0

#####################################################################
#########################    CCNR    ################################
#####################################################################


#####################################################################
##########################  Caching  ################################
#####################################################################
##Caching meta-algorithms: fixP, lce , no_cache , lcd, btw, prob_cache
**.cache_policy = "fix1.0" #"${ D = lce,lcd,prob_cache,fix0.1,btw}"
##Caching algorithms: {lru,lfu,fifo,two,random}_cache
**.RS = "${ R = lru }_cache"
##Cache size (in bytes)
#**.cache_size = 10000 Bytes # 500 Mbytes

######################################################################
##  Global parameters 
######################################################################

**.eth[*].queueType = "DropTailQueue"
**.eth[*].queue.frameCapacity = 50


total-stack = 7MiB
tkenv-plugin-path = ../../../etc/plugins
#debug-on-errors = true
#record-eventlog = true

