[General]
network = ccnpp.topologies.RNP_IPE_MOBILITY
sim-time-limit = 300s

# RNG/seed settings
repeat=5
seed-set=${runnumber}

**.constraintAreaMinX = 0m
**.constraintAreaMinY = 0m
**.constraintAreaMinZ = 0m
**.constraintAreaMaxX = 1000m
**.constraintAreaMaxY = 1000m
**.constraintAreaMaxZ = 0m

#**.debug = true
#**.coreDebug = false

# channel physical parameters
**.mgmt.numChannels = 5

# access point
**.poa*.wlan[*].mac.address = "auto"
**.poa1.wlan[*].mgmt.ssid = "POA1"
**.poa2.wlan[*].mgmt.ssid = "POA2"
**.poa3.wlan[*].mgmt.ssid = "POA3"
**.poa4.wlan[*].mgmt.ssid = "POA4"
**.poa5.wlan[*].mgmt.ssid = "POA5"
**.poa6.wlan[*].mgmt.ssid = "POA6"
**.poa7.wlan[*].mgmt.ssid = "POA7"
**.poa8.wlan[*].mgmt.ssid = "POA8"
**.poa9.wlan[*].mgmt.ssid = "POA9"
**.poa10.wlan[*].mgmt.ssid = "POA10"
**.poa11.wlan[*].mgmt.ssid = "POA11"
**.poa12.wlan[*].mgmt.ssid = "POA12"
**.poa13.wlan[*].mgmt.ssid = "POA13"
**.poa14.wlan[*].mgmt.ssid = "POA14"
**.poa16.wlan[*].mgmt.ssid = "POA16"
**.poa17.wlan[*].mgmt.ssid = "POA17"
**.poa18.wlan[*].mgmt.ssid = "POA18"
**.poa19.wlan[*].mgmt.ssid = "POA19"
**.poa20.wlan[*].mgmt.ssid = "POA20"
**.poa21.wlan[*].mgmt.ssid = "POA21"
**.poa22.wlan[*].mgmt.ssid = "POA22"
**.poa23.wlan[*].mgmt.ssid = "POA23"

**.poa*.wlan[*].mgmt.beaconInterval = 100ms
**.wlan[*].mgmt.numAuthSteps = 4

**.mgmt.frameCapacity = 10

# mobility
#StationaryMobility,LinearMobility,RandomWPMobility,ConstSpeedMobility
#**.provider_host02*.mobilityType = "RandomWPMobility"
# mobility
**.mobility.initFromDisplayString = true
**.provider_host02*.mobilityType = "StationaryMobility"
**.provider_host02*.mobility.speed = 20 mps #uniform(20mps,50mps)
**.provider_host02*.mobility.waitTime = uniform(3s,8s)
**.provider_host02*.mobility.startTrip = 50s

**.provider_host02*.mobility.angle = 0
**.provider_host02*.mobility.acceleration = 0
**.provider_host02*.mobility.updateInterval = 100ms

# wireless channels
**.poa*.wlan[*].radio.channelNumber = 2
**.host*.wlan[*].radio.channelNumber = 0  # just initially -- it'll scan

# wireless configuration
**.wlan*.bitrate = 2Mbps
**.wlan[*].agent.activeScan = true
**.wlan[*].agent.default_ssid = ""
**.wlan[*].agent.channelsToScan = ""  # "" means all
**.wlan[*].agent.probeDelay = 0.1s
**.wlan[*].agent.minChannelTime = 0.15s
**.wlan[*].agent.maxChannelTime = 0.3s
**.wlan[*].agent.authenticationTimeout = 5s
**.wlan[*].agent.associationTimeout = 5s

**.mac.address = "auto"
**.mac.maxQueueSize = 14
**.mac.rtsThresholdBytes = 4000B
**.wlan[*].mac.retryLimit = 7
**.wlan[*].mac.cwMinData = 7
**.wlan[*].mac.cwMinBroadcast = 31

**.radio.transmitter.power = 2.0mW

#####################################################################
########################    AppLayer    #############################
#####################################################################
**.host*.numCcnApps = 1
#**.host01.ccnApp[0].typename = "CcnDummyApp"

##Dummy : begin{
#**.host01.ccnApp[0].typename = "CcnDummyApp"
#**.host01.ccnApp[0].base_contentname = "/cin/ufpe/movie"
#**.host01.ccnApp[0].lambda = 30
#**.host01.ccnApp[0].startTime = 23s
#**.host01.ccnApp[0].stopTime = 200s
#dummy : } end

##Video : begin{
**.host*.ccnApp[*].typename = "CcnDummyApp"
**.host*.ccnApp[*].chunkSize = 2048kb 
**.host*.ccnApp[*].base_contentname = "/cin/ufpe/dummy"
**.host*.ccnApp[*].lambda = ${MS = 80}
**.host*.ccnApp[*].startTime = 50s
**.host*.ccnApp[*].stopTime = 600s
**.host*.ccnApp[*].video_count = 1
**.host*.ccnApp[*].interestLifetime = 400ms

**.*.cleanall = true
**.*.toYuv = true
**.*.evaluate = true
**.*.qoe_metrics = true
#Video : } end


#default output gateway interface
**.provider_host02.forwardingTable.defaultGateway = "provider_host02.wlan[0]"
**.host01.forwardingTable.defaultGateway = "host01.wlan[0]"
**.host03.forwardingTable.defaultGateway = "host03.wlan[0]"
**.host04.forwardingTable.defaultGateway = "host04.wlan[0]"
**.host05.forwardingTable.defaultGateway = "host05.wlan[0]"
**.host06.forwardingTable.defaultGateway = "host06.wlan[0]"

#####################################################################
##################    Provider Mobility      ########################
#####################################################################
**.*.providerMobility = ${PM = true}
#**.router0*.providerMobility = true

#####################################################################
########################     OSPFN      #############################
#####################################################################

**.*.ospfn = true
#####################################################################
########################     Admin      #############################
#####################################################################

#*.host01.**.ccnScenarioFile   = "configs/host01.cfg"
#*.router01.**.ccnScenarioFile = "configs/router01.cfg"
#*.router02.**.ccnScenarioFile = "configs/router02.cfg"
#*.router03.**.ccnScenarioFile = "configs/router03.cfg"
*.provider_host02.**.ccnScenarioFile = "configs/provider_host02.cfg"

#Betweenness Centrality Policy
# Values calculated by socnetv {http://socnetv.sourceforge.net/}
**.RR.**.centrality =    6			
**.AM.**.centrality =    4		
**.AP.**.centrality =    0	
**.PA.**.centrality =    50
**.MA.**.centrality =    60		
**.PI.**.centrality =    16		
**.CE.**.centrality =    158		
**.RN.**.centrality =    41		
**.PB2.**.centrality =	24
**.PB.**.centrality =	12
**.PE.**.centrality =	22
**.AL.**.centrality =	19	
**.SE.**.centrality =	31
**.BA.**.centrality =	50
**.ES.**.centrality =	12
**.RJ.**.centrality =	36
**.AC.**.centrality =	0
**.RO.**.centrality =	26
**.MT.**.centrality =	62
**.TO.**.centrality =	0
**.BH.**.centrality =	115
**.MG.**.centrality =	89
**.MS.**.centrality =	20
**.SP.**.centrality =	75
**.PR.**.centrality =	39
**.SC.**.centrality =	9	
**.RS.**.centrality =	2	
**.GO.**.centrality =	82

#####################################################################
##########################  CcnCore #################################
#####################################################################

*.provider_host02.ccnlayer.ccnx.hasCcnr = true
**.RTT = 3s

#If it's a mobile host, pit temout could cause trouble
# "0s" turns the timeout off.
**.pit_timeout = 3.0s #Every t seconds 
**.fib_timeout = 0s 

#####################################################################
#########################    CCNR    ################################
#####################################################################
##Average size of a content (in chunks)
**.file_size = 100
##Shaping factor of the Zipf distribution
**.ccnr.alpha = ${alpha = 0.5}
#**.alpha = 0.5
#**.alpha = ${a = 1}
##Plateau of the MZipf distribution
**.q = 0
##Cardinality of the catalog
**.objects = 10^4

#####################################################################
##########################  Caching  ################################
#####################################################################
##Caching meta-algorithms: fixP, lce , no_cache , lcd, btw, prob_cache
#**.cache_policy = "${ D = prob_cache, lce, priority_cache, fix0.3, fix0.7, lcd, btw}"

#**.cache_policy = "${ D = lce }"

#**.cache_policy = "${ D = fix0.1,fix0.5,fix0.6,fix0.7,fix0.8,fix0.9,prob_cache }"
#**.cache_policy = "${ D = prob_cache, lce, rank_cache, fix0.3, fix0.7, lcd, btw}"
**.cache_policy = "${ D = prob_cache,lce,rank_cache, lcd}"

##Caching algorithms: {lru,lfu,fifo,two,random}_cache
**.RS = "${ R = lru }_cache"
##Cache size (in bytes)
#**.cache_size = ${ CS = 100000..1000000 step 100000 } bytes  # 1GB
#Cuidado com o script de estatistica ao utrapassar 1000MB
#**.cache_size = ${ cs = 100..900 step 100 } MB
#**.cache_size = ${ cs = 10000, 100000, 250000, 500000, 750000, 1000000} MB
#**.cache_size = ${ cs = 100..900 step 100 }MB
#**.cache_size = ${ cs = 10..90 step 10 }MB
#**.cache_size = ${ cs = 100..900 step 100 } MB

**.cache_size = ${ cs = 2000 } MB

######################################################################
##  Record Statistics 
######################################################################

**.*.wlan[*].mac.*.vector-recording = false
**.*.wlan[*].mac.*.scalar-recording = false
**.*.wlan[*].radio.*.vector-recording = false
**.*.wlan[*].radio.*.scalar-recording= false
**.*.wlan[*].mgmt.*.vector-recording = false
**.*.wlan[*].mgmt.*.scalar-recording = false
*.*.eth[*].*.*.vector-recording = false
*.*.eth[*].*.*.scalar-recording = false
#**.radioChannelChanged.vector-recording = true
#Thoughput for appLayer 


**.appThroughput.vector-recording = true
**.appThroughput.scalar-recording = false

**.pitSize.scalar-recording = false
**.pitSize.vector-recording = false

**.hitRate.vector-recording = true
**.hitRate.scalar-recording = false

**.hitHop.vector-recording = true
**.hitHop.scalar-recording = false

**.rttAll.vector-recording = true
**.rttAll.scalar-recording = false

**.replacement.vector-recording = false
**.replacement.scalar-recording = false

**.decisionTime.vector-recording = false
**.decisionTime.scalar-recording = false

**.rc.vector-recording = false
**.rc.scalar-recording = false

######################################################################
##  Global parameters 
######################################################################

total-stack = 16MiB
tkenv-plugin-path = ../../../etc/plugins
#debug-on-errors = true
#record-eventlog = true
output-vector-file = ${resultdir}/${D}-${PM}/cs-${cs}/runid_${runnumber}/ccn-id.vec
output-scalar-file = ${resultdir}/${D}-${PM}/cs-${cs}/runid_${runnumber}/ccn-id.sca

#output-vector-file = /media/eduflow/BACKUP/providerMobilityResults/${D}-${PM}/cs-${cs}/MS_${MS}/runid_${runnumber}/ccn-id.vec
#output-scalar-file = /media/eduflow/BACKUP/providerMobilityResults/${D}-${PM}/cs-${cs}/MS_${MS}/runid_${runnumber}/ccn-id.sca




